20
9 13186
di
kc
dr
td
vh
mz
nw
em
wl
ewi
fsg
hkh
dgy
pos
uez
gfv
gbg
jcd
jeu
dfq
rha
tov
uet
hmb
gbk
swg
jjv
suj
raf
hri
dhh
kvq
hyn
hcr
jzf
cfj
fcq
gsi
jmh
zby
llo
wqm
teq
bjl
osk
het
gjy
lhu
vtc
rpm
otw
wpe
bfl
gtk
opt
drh
eyj
rvv
twe
xwq
rwv
tsv
arf
imq
ofs
rnd
oqf
rld
xsx
pkz
uvy
ung
dsl
uiz
jkh
edk
lfe
zbi
yln
tvn
iqe
ebx
rko
xcj
ymi
ngo
jqw
nwv
ugl
ili
slh
sqg
uxz
mxn
vwk
eqe
wyt
mhp
vnw
ezn
kgw
njg
idl
bvc
oum
nxl
yin
hzv
bph
qmr
kkk
oji
zpa
noy
oom
ybj
snp
eow
tsj
jlb
zto
avz
dvz
ish
kus
weg
xuk
sfd
fpq
clw
gow
coj
uwj
hdp
wgw
xus
faa
dgw
vsw
das
dib
zxs
fvu
jjh
ttj
gom
dbu
imx
ejw
dnq
pru
kkr
wdq
sjq
lcw
zkh
wyq
bni
lcf
ajy
mpq
vsf
eyq
ker
tjs
upg
jdw
ddk
awv
qkd
swu
jrn
zus
ssq
kdq
ijy
fck
jxj
bjm
eje
bak
isr
rdh
bqp
ajx
fpo
shm
gcm
xhm
wds
zza
elx
amf
fzv
eze
sye
bhv
mro
cov
rav
kkx
hqr
vkc
vez
ibv
hme
eyv
ybt
wnj
tvu
dfo
bqk
qow
ewn
rzo
lwd
kks
kaf
tmq
ets
bzc
zxb
ijz
rts
pit
cib
xkb
cml
zca
knl
zet
dpj
tll
vle
qup
obf
puw
ygo
ymu
mrx
tlz
zzl
xgm
hbq
udk
qhl
enq
lev
nsf
cpr
fzo
pvc
juh
yav
ftb
hqc
jyr
lhz
bhk
qng
dyh
yie
fsx
zuq
opq
keh
ysz
vqo
knw
mwo
had
ytz
rdm
avl
lpz
qdo
loi
flh
urj
twj
eac
bgf
hjk
zum
mgf
xwy
inr
ray
dtx
wfc
tiv
cie
qll
cvf
ckp
qqg
jkt
yir
atg
tdv
fek
fdi
ktn
mwx
iph
vfi
zal
fyx
dfj
jzn
sqa
yct
pxp
faj
qqx
cvv
qzg
saf
jcz
mlg
kdl
wkp
wdm
gqf
iwl
rql
ykt
zaa
vjz
bcn
snd
bgg
dix
xjy
ekh
lxg
zme
ypm
jei
wbi
ftx
xss
cox
tmc
gjv
rnr
qsi
efd
hkz
ztv
vou
ieq
niu
pmt
fnv
ifi
ltg
gcu
ysb
qox
ulb
yqn
hfi
jsy
cis
ylr
vph
pdb
prs
ewd
umu
wvd
rqg
fqs
hzk
dqm
acx
kga
tfs
bpx
gbd
qho
ebq
qrd
cnl
gag
iyv
gkx
uyt
suv
fsv
olx
crc
myq
eii
wpb
otf
zqx
tlu
avm
mwb
lbs
imb
lqb
dca
cuq
awe
auh
rcw
ksr
hdh
byt
oxy
ymq
ofk
npu
khy
ubf
aha
glt
eyt
rad
ski
blo
lti
xzv
ift
tbx
uaf
zqn
xov
zzu
lpl
wqg
tgt
yfx
fvh
yku
cfb
gir
wsr
pvp
kqo
alr
xdy
wgs
pqk
emy
xhi
xvt
dgg
gjo
cbg
ego
ywk
ypo
eiv
mvo
xpb
mel
tmx
tiw
wpm
oru
icb
zyj
gyj
uxe
qbp
tfc
gkq
qbo
ieh
jjj
jqs
nfl
gjx
bvu
rma
yks
wrj
zgl
crm
uwl
ttw
nrl
wnp
ahg
ogb
dwf
izi
nwd
aqx
tqg
xwh
rmv
tfj
cbs
vfy
gvg
cvd
yeh
ngz
iqd
oui
hjd
pze
qjf
zav
uhy
bvv
nvb
wpy
qel
tpq
dfa
zao
qgi
dci
emc
rsl
qtr
fpi
gig
ygp
znz
fuc
bhf
qri
rcn
ihf
cni
ncr
cbn
ckz
dcd
lwr
cjf
yco
goy
huv
bgu
ijo
llh
nwk
tdf
rtu
hio
pog
jeh
kzi
fqh
bar
ukx
ihm
osx
dzm
cza
kwe
qze
djo
zdx
tws
zhk
iig
vva
lqs
izy
zar
chn
qis
qjh
xfw
ewk
sbx
rpp
lmc
wec
elu
auf
ref
mbj
lza
bja
con
pcf
puo
gyf
usm
ato
qwv
rae
mlu
ycb
fmh
euf
anb
vhd
ncm
fmt
zcf
bti
yla
nqg
srt
mmp
dmz
qim
yzl
rqx
dsz
tpu
uvl
vqs
zvf
haf
vjd
mbi
wnm
ewj
rfx
mpb
nie
sso
zhj
lvp
clq
jxt
pta
ouz
obd
uug
xtz
gus
jar
gub
zbs
ata
oxp
gbx
lak
ypi
tki
xxd
mvz
ada
tvj
cdi
zaw
yio
nrv
mkx
pya
oqa
bue
hdz
jsi
ppu
qpx
zdh
vvv
wdi
zze
pbr
pbl
lps
vmj
xqx
rlc
rrm
szo
yty
kyf
lvc
you
fld
qgf
kyy
jer
ymf
fcy
jjp
zuk
jrg
jiy
ykv
lhn
xbm
dkw
tya
vme
jya
xim
plj
dcj
iqs
eht
pmm
mei
qml
dab
rsi
kcf
yuh
ame
zfo
igy
cps
qrc
wab
zfc
roy
yuj
pzq
rtt
scp
qei
crt
edm
yfb
vlu
tbg
sfj
hvr
kcs
uwq
ieg
iro
nxi
jkk
qxz
mhn
iwc
ofp
zvq
nih
ltq
jxr
qjb
klo
vjn
ten
mpu
qau
bpk
mym
qhv
zho
cfq
pdt
vwg
ikp
evz
ytl
exg
mhy
ddo
vff
vld
ggp
jhw
zyh
xvm
tni
rzv
goj
qwi
pmo
bwd
kxy
hxt
zss
ljo
usk
zps
iqo
wig
vtb
ucb
mey
tey
kwm
fzc
gpq
hhl
wpr
sbs
bxe
hbz
iar
ekm
jfw
fcz
kof
lyd
vry
qmb
tgc
byq
yok
hbu
fer
bea
hwl
hip
rdl
awd
usn
zab
rib
mho
pvw
xlw
nts
nak
eff
dpo
pez
ojt
dlw
ked
zvg
mnm
iia
nfy
kqk
fai
nmh
zdw
yxr
zzg
rcb
gsk
yiv
ywe
ldx
rgo
vgf
yvw
kru
zex
ukh
slt
mgc
rfg
fgd
thz
gyx
gnm
mwt
fmm
pfz
iaa
rre
yzk
boi
kww
iuf
qsd
pno
ald
puz
pds
mja
nnj
nsu
nbd
eeu
mmt
lgb
mtw
ndd
jro
pyb
psx
dzp
zpc
mzf
umk
rtz
yke
ijs
zqt
aso
euq
icd
rdr
eco
jbs
whk
rsv
wza
whi
tkl
bpo
ids
xrq
rcf
dfp
qtj
tcb
nxm
twq
ouy
gno
fnz
wiw
gwx
obw
xgu
xwx
rdb
gyk
anm
fbg
mdp
zwj
owz
whg
hcz
gfe
zrr
qmk
lzn
fds
rrk
agf
qyq
ejp
gjd
wov
iay
okr
gqt
ikf
ivr
ixj
ukl
ehm
ksz
kxu
foj
hjv
ysi
rjq
xow
ccs
rrv
pph
icc
syp
hqa
prd
hku
pcq
uzv
otc
wnv
tkr
vrc
thh
itp
whl
puj
qqz
sgd
iol
vbk
iqz
csx
nxk
zhe
hqx
pjv
lgi
tdp
erf
zha
iki
wes
vjv
ttu
ltx
wlr
qfs
kre
xth
znt
qak
ize
szy
qsu
ozl
mra
qiz
ybr
jvw
fiw
brr
vap
arr
pjq
nfd
yba
yld
hqp
ore
fjm
zxy
sha
rvn
por
vgl
jlx
zzy
lsc
zsn
cnc
wwk
xlz
xab
bhr
dub
svl
utu
gnl
lvf
bxd
rrh
dcf
zfl
vso
koe
gim
kjm
paj
zpu
whw
yfh
mqa
ejx
ofu
fow
mbo
xno
jnq
zaj
jte
knx
yfw
kzk
ine
msy
ftq
xlr
saa
ugg
hbk
ncx
que
sxz
ngq
pfy
kvh
wid
swk
fiz
pyc
ruy
aey
okn
upu
ocf
vhr
xeg
zeb
fpf
edz
itr
mze
zuv
sqh
xir
awu
bbq
ped
fau
win
ugs
hyw
goi
qdp
mke
hhu
qov
hod
luu
wfj
ajn
cwe
juj
tql
wbm
wxi
rhi
zsx
pkp
ruv
moi
thm
nrz
clt
ukz
lmx
jmd
mvd
xlh
kqu
rui
gnp
syl
apn
czh
fyh
ulr
hxa
mci
qsf
bht
tow
exf
zpf
bot
hxb
jak
fzy
ajb
pkm
okp
gvj
ytm
pbc
uyz
wia
pnj
xnw
axz
wft
yul
yom
obu
hec
sob
hmm
quj
vgj
jou
vds
iwg
kbd
kym
lfg
drn
uge
snx
xkd
aqc
uew
xjv
dpu
hxo
yvm
iwj
qsj
swm
hgo
inb
jij
qpb
wzz
tvk
dvx
fhl
vvm
lef
duy
euz
udx
vhq
iua
mrp
dmg
zhu
nni
yma
onp
syg
unc
efn
bwl
aen
deo
ntt
dnv
lst
wcn
iha
uji
bfa
kvu
hqo
apt
vls
hqn
qii
lba
cqq
xtg
ftl
mli
ewu
yki
oko
aua
dyd
clu
crn
qgj
ner
ukd
xen
ydt
rmf
kuu
mnp
fss
ljy
ask
hhi
kkz
rgk
uwd
hbv
lte
quc
pdy
zre
zxl
yjn
vqc
mth
ylx
qxd
tml
loj
sim
mhv
fuo
lvj
nng
jzk
qqb
dra
amy
ahn
dad
nse
rbv
zll
ned
scq
inl
cbz
jfr
iks
tts
jlr
cny
khl
lsd
alm
gfj
sei
xjn
evt
dtu
qjm
biv
ybi
vvf
vvh
qic
cqa
tcx
bhn
nok
cjd
pvo
rsy
sxa
gfz
sjt
jwl
qgn
tij
xui
gkt
mna
fgx
tis
vxy
eod
yyb
vbo
fpz
mys
qcq
mqq
qlh
wjp
igh
fno
bep
eqy
bvp
bbl
atj
ckd
nnq
uuq
wxg
ing
mhj
hck
fvg
gwv
qct
kwo
flr
ztf
evi
ywr
kqs
vbl
blh
qik
cbx
oyn
hdi
phu
rrf
uwx
yua
hfc
kbx
cjm
hfo
iww
ydv
bla
ngw
smu
kjq
ygh
ywm
olm
hqh
zfj
rtk
bki
pnz
tbu
dgk
vgm
ekc
jcv
ohp
nxo
btx
ahb
ika
vsb
vru
acv
xhq
hsm
bey
jlh
cda
tlw
zun
qku
uqk
jqf
qkm
uxp
tjd
qsc
ovt
cmi
fbc
wtm
cbh
xxp
xwr
qmy
ygr
ugy
vlk
bwx
kto
rmc
mem
yek
dts
kgr
jwx
dcn
hnr
ahp
eob
sqm
soh
sbe
llj
kvj
cba
udn
ijw
bah
ntv
bjh
mgr
oof
bxn
din
ilo
kyp
ylq
tjw
ziq
wei
wfe
zut
epf
cdc
hpg
zrd
nht
mko
uer
lpt
dxg
kdg
xhn
aaq
yzx
ysv
ufh
osf
nug
vhg
xza
qra
irg
ixq
mlq
urv
vox
azu
glm
jtt
cse
lkl
gbv
gxc
qin
mfe
wrl
vvi
ghg
yec
dkp
ycc
hhv
lqo
rvi
oww
haw
ymc
kzp
ums
ciw
abh
twt
jyp
htu
cuy
spt
ngx
rom
jet
ucq
wfn
lxj
dpr
thu
duv
dgn
ddc
rsd
pgj
cek
dia
uxh
aov
fyn
dhp
qpz
zii
stb
ofx
fqu
xgi
zdu
edy
zvw
bkm
acu
fjv
ghi
jhn
hdx
ipk
ykc
sgq
lgx
xro
uko
uzy
unu
lqg
bdg
acc
kid
gjc
pln
tmj
tsd
rdy
jac
css
ujj
iep
htr
ujh
gee
riq
wlj
ihc
wal
elh
mrr
vav
fqo
hlu
skh
uzf
inc
xpw
cfu
qgc
zjd
eay
tik
nei
vlj
wsk
nsx
bbm
jja
uhl
sxm
rqq
sqw
fkn
ppg
zvk
qbc
dai
qbd
zdo
zom
rst
cwg
jrk
xvw
fzx
rvk
fxp
ewc
een
xiv
mgz
seh
vhp
emx
jln
aus
twu
epo
pwv
jhx
qaa
kwu
mae
xrb
yqg
ryh
jhq
hhh
udz
kke
vir
acg
wzt
dwp
bce
nyv
cmv
vsv
hxq
hal
iib
hnj
tyu
fji
yen
uhk
kmb
xmq
bgp
dgo
bzr
myn
kua
pdw
upz
vxk
sds
uxo
pfn
vnf
yix
sbu
hpq
vyx
xti
hke
xxm
eia
wkj
hrq
yvr
kmd
tmi
oss
kct
vlb
fud
dsa
fms
jsw
pjz
yzn
bgo
foo
bbx
xyu
xdd
acs
kjs
jey
zoc
ykn
npt
sjn
upt
bmd
dwn
hhp
hdu
asu
rtq
rna
kuf
vyr
gaw
hps
eaj
nuo
xkq
jil
akt
gxf
agl
zsd
olo
bac
sxl
ntu
ohn
vep
nns
vpf
tcu
bui
jpc
dog
gnk
fvf
psw
ged
qft
chu
lit
fnr
bve
hcs
urc
ipt
iga
ipj
tfe
elg
xby
wvl
auw
fjf
xfk
tft
amj
gdk
zfg
eah
yqv
eju
rpx
loz
zvm
eqp
qcz
tie
gfg
ykj
kkv
jmm
ylj
czr
iul
omn
cen
kkm
auj
efw
lzj
ier
mox
pid
udr
rqy
sjw
zia
ynp
tfg
mnw
nhm
xop
rny
cei
tko
wer
kic
oey
jke
pqa
raq
xgq
tge
yxb
npe
hov
ofc
bew
xrx
jft
xjx
nnx
fqm
ozr
pvq
fih
ziy
tuj
jjg
hzj
oas
bxl
nyf
res
qdx
siu
gkl
cjz
yod
xgt
mse
nal
scn
lqp
vzw
roc
usv
tny
ybm
lwo
tcm
gqi
xub
mcf
fjj
gbh
pgg
dkk
nye
sov
dzb
vpu
kin
sld
pge
hbf
ebr
jqa
nxe
aik
lbq
xnc
zwd
rxj
swd
yoy
sjb
ela
kgd
yvv
cpk
lgw
hxd
fbp
wjn
hqy
uyp
bof
zeu
ftf
hqt
zns
pbk
zpz
ott
oaj
hsh
qti
jen
ngy
fve
wro
wzo
hgt
dgd
pur
uzw
dqs
fny
ety
skq
dmi
smk
bom
oqc
lic
exu
rhb
ihs
xal
cmw
hnn
gpe
gzv
gvr
ici
fum
wpx
sjm
ozk
zdn
krt
bcc
nvq
tam
twz
jal
sbr
xav
zws
cao
utg
arn
rdv
jai
zbk
ejv
yov
wac
fbf
wqr
zjm
uve
yeb
rjy
ape
xes
lia
yph
pau
gfb
udh
zxm
xdn
kcr
pvx
ule
zmp
kag
nrk
zxf
jzg
rwf
vdr
amx
jox
aoe
eho
mao
msa
qgt
fzl
pif
wqu
hia
zmi
bfi
kcl
pat
gah
fyz
ejc
hts
svf
ogw
tyc
cgx
otz
tzv
pkn
rfb
zrc
udf
cxn
mid
nil
oqs
ich
gls
gyr
zhv
lot
mfj
jry
znf
btv
hlb
koi
cga
daj
rxy
qtu
yfl
wlb
xci
lim
uwe
fig
deg
kcp
uuv
beg
lmk
avh
uvg
yag
oqg
wlu
nzk
qbk
ana
yuu
wvn
lku
uyk
qna
pul
che
lgn
nzh
rok
yud
gkd
jlj
tfh
jpn
ebk
eya
hnf
ehh
mwr
oan
yfs
qqn
qpu
jtk
mgi
ycu
itw
nve
vej
opc
svk
pyh
nrm
yuw
anf
kqy
qlu
qfg
yue
rac
yhd
nir
rux
hgf
kwr
oln
cly
qxg
azi
iqc
zty
vay
olz
nww
tae
ubm
bhy
ths
gmw
tpz
yem
bid
kac
bkl
lsb
kfp
lgp
gid
nip
bzn
blm
mvi
lpp
tay
xko
ccy
eca
eio
pub
vfd
sln
mkn
qhm
ras
ypa
png
odt
nad
seu
xww
mji
ati
fyk
jgz
czz
mlx
agn
olf
jmu
pja
mwy
oya
pak
puh
vcn
gdb
kom
bzo
nte
hdt
hms
wgz
jhm
cjv
hca
mvg
mjg
jkf
hcy
sgg
hkd
tma
etr
pbd
xwi
rvb
kgl
hqv
ulp
clh
qoi
ecb
hnp
cwd
zlk
obh
wyz
pcx
bqj
eor
cle
pcb
jnj
bwv
sag
jci
lga
ozw
smg
oua
yzo
dje
omx
rdd
kja
hwc
fkq
olp
skj
wjh
nuj
uuz
obz
cia
gmv
jpe
oeg
qrb
ntf
goh
bhw
nds
ejt
ifx
ptm
vge
wcy
geo
nvj
tha
twh
zzc
iej
ryl
jpr
vea
mkw
isn
fma
dwr
cig
mok
bwk
rht
csn
grb
qqr
nvm
fcv
qap
qwg
doo
ljb
tld
tmn
ddy
rrc
edu
nro
whb
uie
sjx
tcs
oed
egw
eig
wff
uqv
quv
fzw
bwt
oax
trn
iqx
fvw
jwb
zqo
fhg
htw
gvo
xco
ywg
fri
xha
pfa
sda
jwe
qal
bqa
ahz
xiu
oem
ivc
uym
cfp
ftt
kod
eey
hsp
xke
ydn
lnd
npc
hpb
rpo
vaz
tcr
vdk
xls
mjm
tzj
fmc
djq
krn
fzs
zgg
sgv
jkz
fmi
lgu
smn
gzd
ppi
qsv
tbs
dao
cjj
paf
ove
qwd
ghb
pws
som
wjo
sed
kqr
qfr
dzd
nov
swy
kzq
xom
njb
wxu
eqh
vyd
nzn
zts
lgd
kmz
rcl
vpg
jbr
txu
ruf
mat
rmw
sqk
wlt
tww
ntp
ozq
gih
lkd
fts
icw
dvr
tyq
zpr
gjm
pbo
dap
slq
djb
qkl
uqf
axo
jui
qjp
mus
ins
xqz
zzk
exk
xmy
xcv
wnn
crg
qjq
mzd
gyl
int
wfm
hil
lhq
veg
ems
stv
zag
flw
kbi
qoa
twx
ihl
rdk
bpu
iuo
njh
ydi
pox
fog
nrt
yiu
spd
shq
wed
cea
cpu
olj
lph
vna
apv
bwm
iwb
fpc
zqd
cum
hkf
kix
hfu
xse
iyo
nso
eps
yhn
meg
nwz
rlp
tfd
qrh
ytr
mhq
utp
bsh
xjf
bdr
icr
eeg
mrh
wdo
tfw
dns
eds
zwx
kqm
wxc
oit
mcu
bln
qlq
qet
xqy
kgt
zad
add
rmq
zpg
tjy
ole
vok
rhf
cpo
rkz
iyk
kub
yaf
xxu
bnm
lut
boh
ixo
rqo
gjg
gzr
hjp
ccc
nap
pbn
smi
uut
rca
ehw
ser
enu
icq
hif
opp
gdp
uyd
zrt
qtk
wms
wqt
wkg
umy
evu
xea
qnx
qde
jbk
zfa
yis
ral
kmf
byn
vda
aue
onk
aql
xek
ubd
wfi
gjt
gjb
kvt
ksa
hnt
dfk
hht
ldr
gcd
xdl
uoq
kwi
swo
dxp
rgg
zlm
jgn
tib
duf
mrs
zdl
yml
gmh
fqd
cyp
vux
jwr
nof
rdq
cxf
ful
pgf
ejl
mwm
dyu
gnq
nhs
smr
mdu
jnz
evw
fbl
lua
ikx
iiw
ivd
iyt
rsf
dvp
uoo
cgr
ekt
aox
qvi
nkd
uob
qef
lwg
gtm
rvs
tzo
eda
oqv
pua
nbj
rxh
nhb
bes
vlx
ida
azd
fyg
dsd
nou
his
tuc
rjb
ikc
raj
zzj
unv
oxl
kvl
zbw
web
fqn
xug
uvr
zba
sry
jjd
pnf
oki
xbi
zsc
uau
qjw
wjx
rqu
xas
yub
mow
eua
nkp
xtb
eyk
xmu
low
owu
fnj
gqz
wzw
utr
zqm
zxu
xog
vgi
mfx
axx
sxo
wfp
ikz
iui
sce
gpr
wjy
jxz
nnf
jiw
vqg
jzc
dfr
fqk
mvy
wnw
vuo
sxj
vdv
xaq
xwe
ers
uru
iys
zgr
cwv
ccd
wha
csq
zdm
pvz
bxu
yel
lhx
lec
cbw
xbo
bou
gil
lkb
ily
gnr
vvg
rff
lzv
aia
ept
khm
dae
ona
xzp
rsp
gjk
cbm
wkk
ajo
uvm
wrd
vwf
czv
fbv
xka
pwj
hex
iyl
iiv
hye
igu
fvt
ubt
zvu
axg
rlj
kkf
hyx
uub
wcv
urs
juc
rjw
kde
cnb
iox
zmo
yrm
nkt
mty
tlo
xxl
uwf
efi
aax
awj
mrv
efb
ddw
edt
qqh
qbz
vtk
pwz
tii
dyf
gfa
mez
qzy
epe
utv
gpp
ieb
yxu
ujf
wtd
ien
zjo
hlh
avu
lwm
ips
xbw
mtz
crl
nhg
btq
gzu
plr
tan
gvx
qlw
gby
kyz
blb
pyj
vyh
rdu
igm
cqu
xao
mbu
ggo
xad
iij
box
sod
nzr
evv
wyk
cnh
jjl
cmg
ibz
bij
djk
sbv
qep
zsq
uca
fzt
juf
qqc
ofz
wfk
mis
pbp
fis
ysx
jyu
fdj
bok
vex
tby
tet
nys
jjn
zqf
tbk
nlv
qvm
qdc
fro
dpg
akh
hka
aby
sti
axe
kln
tao
ohy
ves
dmx
qxe
pku
dsp
dml
pnd
xay
ffv
eer
elf
mku
fpb
byz
eil
daa
fse
kzr
oil
gxd
bvd
php
hfp
kcc
hma
arq
icm
ymj
mbf
ffg
aig
qtq
miv
vck
swe
cxo
ezu
any
arv
wtl
sil
kbh
wtw
gff
icl
flp
aps
hgw
wrk
kyx
fwm
slc
pyg
cif
jnk
xem
ueg
duq
opm
qwz
iue
xws
zjk
hxm
pff
tji
tlg
mou
kcy
auo
ejh
buu
oqw
tps
npi
gtr
irx
jgd
csj
yfk
ljv
ehu
ewg
kny
qkn
cus
nvi
ibn
ikd
lyq
mlm
jic
oys
llw
hud
dih
etu
ndh
shl
txl
sqp
fnc
evn
djr
eky
tlt
bpp
vlm
uqx
ysj
itn
dpx
lew
vln
nln
mbk
ruq
aes
znb
lty
uoe
jph
lld
slb
yui
dzj
wrt
zfu
vwz
oee
ptl
blf
gpw
iak
xyh
wwa
bpe
pxq
gyz
wgj
pwg
hfz
qmi
zdt
wpu
snb
tzc
kti
izf
aci
sep
hfk
lpk
vkm
odc
yxj
vfh
ozp
vca
ngp
tsu
xzn
jpg
rgw
gbu
nzq
soa
hzp
hlw
srh
sbt
yuo
yga
qnd
mav
doh
ajt
iyg
stn
yng
sjh
bao
lmo
ijb
ysm
iub
wot
pxm
ucr
mcl
fty
krq
hko
okc
ddj
wli
tlx
pmq
rnl
qut
trc
cnm
nxg
fws
upe
elo
avk
tta
qlm
ucd
ldg
jms
aew
otd
zir
sjg
fbi
sul
qhr
zbc
pjs
swj
yux
qdm
qxk
noq
tjz
yyt
vnh
apz
wqk
szr
htb
beo
axr
ala
fnh
vzb
wgq
jzd
rlz
iid
dfg
noh
fsn
maa
gcn
rul
lvb
qat
qby
hkm
fst
dks
jcf
xxy
hqs
xcn
iop
dek
yrx
dal
rwi
xkm
cdr
ehn
ofy
ugx
cyq
opa
goo
psy
qrl
egt
csr
bvz
qhs
yqz
sos
wzs
qwm
wvy
hsn
oer
xah
gyg
wvb
vkl
ddd
xxr
dqz
hjs
ven
mhz
eoc
coa
mmo
btj
hpd
zry
seq
dud
csw
vuf
fde
mlh
xpi
cxv
bdp
mce
mjk
ooe
fgh
wtp
fgl
uyh
qoe
igf
fnp
src
zhi
exe
wcp
qil
bje
rhd
wom
cok
lhp
mhs
ljc
dfs
kqt
uzl
kzz
rtv
eoi
cws
nua
wjw
fcp
utf
sxu
ist
tyo
dmu
dvc
bjy
ptc
pkx
dtn
jfh
zmx
plb
imc
rvj
ozy
qdt
xzw
kyl
asb
vbz
rgd
wgr
pig
imj
gmx
ngf
vhe
lxi
xfj
nnv
ita
gwr
tjr
nhq
ijk
gix
xfx
qmj
zhx
rod
wuv
hsb
dzf
cbo
zsv
fry
ugi
tjp
mgx
jxs
zma
mch
bxb
wzu
blv
fmn
dtv
ssd
fmx
rho
pye
yac
gcs
viq
mjf
xmc
kog
aqv
efc
qji
svz
tif
hci
ght
ioc
tnu
rdo
fzu
zbz
ciz
kzv
pik
nwj
qcl
ylv
pek
fdt
maw
ptb
str
tju
ucf
ofi
ogx
jga
skt
bdu
rov
fwe
lvz
wtq
hyr
wps
nbf
tke
mpm
yni
qiv
asj
caa
kqp
ipp
iic
xxc
nyu
gso
eeh
dvu
yyy
wjm
gqy
qpa
stf
cfi
ilb
xam
xqq
mrc
upi
onm
asf
zsj
xkv
roa
gaz
cgt
vlp
npk
yci
wyl
oip
xjj
keo
jcr
cdw
jhu
uqs
zde
bbz
wrg
gvy
gkj
ueu
vey
kdk
azw
ble
gpx
ezh
txq
pap
tly
vxo
lmz
iam
qjv
qha
afl
dkv
pal
zpq
aei
guo
elb
uqp
tmd
lpu
qxb
oth
eem
jqt
rfd
bds
fgq
npg
vpl
pbt
kcd
wuu
gtj
qvj
kqh
jiq
hpm
lye
beh
pxv
bux
nxq
tso
ssc
jqv
zqp
vxc
osm
kdo
yyp
dqh
sad
lnp
val
giw
pyd
xpz
eas
kiy
aio
hfw
vqv
mnc
zlc
uot
moj
djc
ocz
noa
mkd
trt
rcj
ykr
vta
kds
ihu
oxm
oto
ngj
xym
oqy
mqk
qgd
kio
krz
qpg
hen
nhv
bpi
dgl
big
mcb
cyd
lkq
ytq
wii
foa
wkz
twd
hkx
siq
euh
kyv
gpi
csl
thv
uai
kdf
ciu
dki
gjw
vsy
bie
oyu
wpo
pfq
equ
ggl
agy
qtp
caq
muz
min
guf
qty
tez
ahd
zcr
yff
idi
vkh
ejn
tjt
xte
xjr
ncd
bkq
mnz
upl
cci
vst
srd
riz
gje
hiz
jim
dev
dlz
eys
uhe
qyc
lcr
npa
vsg
upq
qol
mls
emi
vnm
ntl
xmg
hgr
gau
ois
bnt
kce
pla
epc
ise
htg
ykf
fyw
gqr
uek
pcu
xfv
dgm
yum
nvy
owq
dva
kzc
lok
jks
dxz
hzc
vnk
mgs
eqn
ycg
ivz
hvs
oek
hdd
bpv
ger
see
won
xvz
zui
byd
ssi
yez
log
ngt
mbg
lzm
bro
cpq
aek
jgu
sci
wfa
jmt
nuv
hqg
ppl
bop
kno
ywy
dag
sdi
pyy
cbj
qxw
nmy
fif
blr
bjq
ecx
wak
ual
xnl
nba
vup
upm
dqv
apc
qcx
eos
kvc
jhs
cks
zgz
hbm
xos
vjm
nyp
vzs
gfo
dzw
mfb
meh
klg
ouf
yid
rds
foc
zxt
hfh
pum
jeg
acm
rxo
nbi
oif
tex
hmy
zbt
ydy
euj
tvb
mje
hun
xoy
zxd
hcc
qeg
hed
yse
whn
xed
dyc
wun
wnr
jls
ouk
zgk
waf
vee
nya
ybv
hds
mdl
lww
ayz
mjb
owp
dbh
dyg
cvj
tcf
ndu
qbh
sig
lgz
vag
lbw
zvc
xuq
dhi
xwv
hew
tqx
olb
trj
dzg
jaq
fuf
wtv
ttg
lhl
fhi
wjr
cwb
cmp
dvs
nbn
xet
rea
yrv
hmu
ofv
sno
hvo
tve
qvf
kob
can
vgt
bev
yif
rdt
ucu
ytv
lyz
mqo
yjb
wkf
ffr
wkh
bej
yyr
bpj
mtt
aif
xve
ouq
lgl
nbp
kgm
ujd
ipw
bls
txi
kvg
mlj
lrg
vhu
pgw
sab
uld
hyk
cje
ycy
otk
cuj
ejy
jvi
fie
nuq
sut
aln
kia
due
jtc
nos
vil
bzv
bkf
tvs
gqu
itb
nsl
vfo
efq
dqr
hwh
avf
boj
qmu
ebd
yae
bzm
cfg
lsn
ztq
sns
air
rwj
zzo
wct
ydz
hta
umd
cet
bhe
nux
czl
olc
hra
qrn
mjz
yhi
izz
eex
net
sui
kvs
jsb
dqp
cqz
nyt
cbd
gfl
vja
yck
ipn
efs
ork
kbb
jwm
wgu
fgw
jwy
pyi
lvq
uvu
zbu
anw
kwy
ffo
lqq
qso
tgz
acp
zat
wxl
uce
rtr
pty
fsj
jss
coh
xwu
lul
lnz
ena
lbd
gko
ops
wfx
pri
ngr
zhq
nrf
cln
efh
mzk
gwn
iuh
nev
xdx
nuz
wuz
rrj
hbn
glb
jbz
uyy
pko
hix
vwy
zso
ybh
epq
mev
bxz
ujz
tzq
wlw
aeg
kkj
pvl
zqi
wqc
zqh
soc
aah
qgr
mep
akn
wpa
xdh
rsh
hrz
uhm
nvt
xbh
jlm
xdi
lqt
jwi
plv
bzb
mio
ypl
nag
zyy
xfc
nen
zes
lse
mux
hgp
xey
fhn
exb
txd
vxg
fwh
vuv
jlw
xdq
yah
cya
eql
oux
sua
gva
wwx
ejz
odl
xxi
yth
fxw
kbz
lct
neb
ndo
yao
ybs
haq
aga
rbe
wki
rhn
gwa
zvj
mjx
hxs
agm
hyg
ntj
rwp
lgg
tpf
uwa
nel
huf
kos
pwx
fmw
vgk
voq
zhn
flu
cja
vrj
btp
kts
rol
lgm
ydl
zsy
tgb
mnk
mcv
ryc
hpo
tnf
nib
lax
stm
yet
krg
rab
evg
wzf
szn
cfs
nnh
zix
bwu
oyw
jtg
kyo
nyg
onq
loy
pgv
mlp
nfx
qbm
pvg
evh
udl
zec
ptr
lvd
qsg
mba
ggs
slm
akz
aqf
mfk
jlt
rjm
aef
qqk
vkx
med
yva
nlt
mjp
muo
nrj
rrq
qas
rks
zxz
bir
sfg
jpz
lhr
ctt
fyv
wte
ado
nea
wvh
mmk
lid
odr
ydm
yrf
ipb
kdd
xot
vjt
ojs
zkp
mfl
voa
vsc
znd
kpi
mzb
nph
wqf
ojv
uns
hpv
jgh
rcg
utw
pqe
jtb
aai
jws
ewz
ugw
ire
aux
drb
alx
sgm
xgw
xap
xtk
txs
mya
ifr
ydj
ssh
wax
gjf
ckk
ldn
fba
bci
cxr
qkk
idc
ckm
wne
tnz
mts
xfg
yxx
ahx
cgw
pob
tpb
mjj
gty
cyw
ntr
asq
ose
mcp
kfi
lwb
ltr
kzd
igx
okm
vjc
bbk
hfs
vny
pkk
aiy
kay
rsa
moo
bme
fwn
gse
ajc
vfc
fhs
zve
llm
mst
qix
zmm
mfu
qew
qfa
mhg
bet
gbp
vtf
fyr
xiq
wqy
xhx
qif
rfy
meb
zyr
cgz
vsa
rah
aud
rrr
syq
pqy
qpw
kgq
mxb
hjf
yoz
tvq
rka
gjh
qba
peg
ncg
voy
nrc
kbf
qhb
tpa
bon
vrv
hwo
bfb
mqf
jsv
red
qip
yot
kzw
dbt
ebu
gro
wgy
rzg
zbq
lai
qvp
oim
ijv
jaa
ojf
tfk
say
fxc
oro
ocn
fij
zoa
cfr
idn
kyn
ozv
yia
onv
wjq
auq
grf
dye
hsl
xfr
bjf
uow
ffy
wbd
gta
has
mgo
ohg
fwz
bsg
fsc
jlz
aub
gst
dpe
djy
uyx
stq
mod
suk
ixc
cha
iao
vsm
udb
cjc
ckv
oun
gvw
urt
vot
lwl
aju
znr
dkr
udy
exs
xch
aoi
hpp
oyi
pvd
lwj
kjg
aec
dfc
imf
jkl
vio
rya
lfz
wkm
bbt
zsf
ugz
vzl
usf
jzi
rdf
inq
gdj
ewr
wus
yzy
ium
kyt
gdo
toq
nae
adr
ypb
joc
ikm
mdy
nuf
jem
xcg
zvb
jkv
qbx
yeg
mjh
zel
lrd
pwq
xsn
hgd
xai
fvi
idx
sam
adn
sps
jpj
prt
eoj
pti
odd
ydu
rit
ows
vql
awa
vfr
umc
sxr
axl
jdk
fzr
vjy
bad
bca
ufj
hnl
jvu
yuq
cqw
psk
djm
wvw
nqa
yrq
zdd
myr
ljr
aet
oev
nth
yvh
xnd
uvn
vpc
ekx
mfr
vvp
msb
sai
fui
mgp
wns
mfg
jbx
usz
krk
ivo
vkt
sdz
ojr
ica
pay
cyc
vti
ugb
deh
vdl
dzt
zvz
gej
zxn
ytt
rbg
nsb
kxw
xnt
lck
paq
gfd
ecp
cxc
ody
riu
jit
vlh
uhq
rdi
tpi
pju
joa
iin
wni
dbo
vad
hei
fnm
cvm
swr
zpp
lxq
lkp
wfo
wpc
jwp
frj
lth
piu
xla
xyc
uwh
ngg
beu
dum
dvn
tca
aff
nsr
lsz
ceq
gga
cmc
cwl
lne
nxv
enk
dcx
hru
ygb
hvu
pav
ynt
laz
plz
dti
jje
xzq
ccu
byh
dni
cvi
gzp
lah
vrn
ffc
idb
nub
sat
len
uxr
qnc
aie
msi
via
kzg
btf
bsn
thn
wqs
lik
iio
coc
lqn
bxs
ggv
ydh
bxp
zfq
ydk
ecv
czp
ljs
luh
aji
nnk
ivm
zmb
bwa
ptf
oib
mvb
bqg
mjd
vet
ndq
hjo
oxd
gma
llz
dmw
vdm
uso
hnk
ztb
nmu
kfh
hdb
tgd
dvm
qyi
fib
hem
zqy
ovy
rvz
yun
kfd
ius
huh
nsg
ars
sjf
txm
qrf
pgc
bor
jtm
byw
kqq
kcq
klt
ibp
ryo
hsa
etm
llk
cxa
tlh
ouc
ztd
kjh
vri
syk
lnr
lhg
uqo
mck
mhd
wsh
txj
fqi
nfa
mht
auu
fvp
xdk
luc
vfa
par
csd
jmi
ojg
hsc
dmv
bmy
jef
jud
enb
cim
mmy
lzw
efp
std
tyh
ure
nhw
jex
emr
rkh
uxb
cpl
tjb
jww
rlo
vis
vxj
dfw
nqi
blj
tjm
ekp
uma
rvh
avn
llp
nwa
wht
xcy
try
sev
gbn
dzk
tht
yxp
cna
mka
wca
ghn
xwo
icv
hcg
tnm
kzb
bmb
yxs
sqb
aqe
fti
fsd
qmz
eaz
xlk
oge
gfm
hls
gng
wqd
mqg
rgl
bob
ute
faq
fww
eft
uyw
bif
rzl
jfg
glj
wjd
hao
top
sbi
unz
ulj
uph
wmx
vmy
ssv
vbn
ctj
kcg
otr
kjx
yfv
phh
nyy
izj
pxg
bqv
mha
dgr
wcl
gok
tvv
gdv
uwy
udv
fpm
bjt
vaf
iie
bdm
cey
sqc
csm
xmz
rag
mdm
hva
wrq
qev
uay
yhg
otv
uxu
ptk
yoc
qps
nzs
pok
joh
few
kcb
cyh
oyo
xkc
ffs
pjw
jqj
qql
uno
twr
xzz
rnu
yzz
gnb
bek
rvd
rgz
ugc
qrw
ptx
yaa
ecq
lxn
kby
csp
vpm
dbe
bxy
cpb
rzf
ysn
pde
nfv
jut
emp
yyh
kmn
jes
bnf
vqm
shy
qpe
uqy
llb
nzw
msd
oen
fhy
toa
lyh
vxn
ipi
qkh
dkl
zwc
yiq
wpj
ylg
jbt
spi
lwx
ztu
zbd
hxz
agz
xlj
kzt
zgo
vli
ulz
uua
jmn
cst
nqh
fhh
fta
pag
xok
zhd
gss
eax
tmu
dsj
qfo
odo
xvh
thl
dnp
ytp
vni
ejq
qen
ztj
jaw
vxp
wch
ury
qyg
zdz
hwu
bqf
ite
mgb
ylp
nyk
mtd
xfb
jfe
tnq
jwd
pbb
spm
xld
kak
fzh
mlb
ubk
wtn
gms
awg
qca
hie
yax
vxl
kyh
wco
obi
jca
rij
fpa
bpg
fmf
ybx
nsq
ltt
wor
iqg
wja
sew
vgb
lgj
ath
ymp
vyg
nxy
ykx
axi
yxv
hmr
kbt
cwa
yri
jok
hol
hab
zgy
tbm
dtg
bcd
uxq
jrb
mzl
sec
gmq
lam
scl
kvw
tfz
jza
esx
isi
mvq
mhu
bho
miw
ioa
rhp
raa
alb
yad
dhl
hau
gfi
smf
dxj
nmd
hnw
ynk
jka
ltv
ytw
oft
xxz
lpj
jzs
aut
cuw
xut
hoc
nbq
ksb
fyc
azr
pou
vcd
kfa
ccj
vod
azj
khb
vpr
nbb
oqn
nrs
oni
jhz
chz
zki
zaq
xzc
nik
mdg
ojm
jii
eie
wfu
brj
pwp
zcz
egr
sex
pfw
bmh
xzf
dxw
hsg
zgw
cas
ynf
eku
agp
ybd
izp
jzv
owk
ogy
emw
izn
qyv
amk
ofl
qqf
kra
lyy
qoc
yug
hoh
lta
tkw
cvq
lyc
ioe
ywo
gqn
slj
gdx
pnm
wsv
qpi
zju
cgk
mhm
apo
snk
ryd
rla
fhb
kve
xtx
oxt
uas
fbq
ezt
fkj
eiq
ftu
nkn
ttp
rzd
swp
bil
jbm
eus
mon
fff
oeu
wlg
xkh
iov
atz
oba
vbh
qle
jec
btz
mtp
mzj
xxx
fsy
jnr
gel
zas
acz
lqf
fhz
fdl
kbq
ojy
yit
bql
tzm
gsd
hvh
bcq
ddh
xtm
mxy
xqn
hmf
wxt
ntc
xwn
oeb
rqt
rje
rat
mbh
uux
xle
ufn
urp
dym
qjx
odv
jla
yyl
nki
nsy
rhw
cog
lop
aqd
vsu
zwl
uts
crp
xca
krw
mqt
qln
aam
wma
jhj
dya
jgw
zth
wcm
jzo
uoy
suu
lli
gaa
hmi
psa
trb
wfl
war
fqe
ygd
ppv
ytk
cqj
ebm
gqw
jrl
dew
iku
yzc
ndy
ijn
xmp
nbg
vwd
ete
gmu
nsv
xuc
jpi
xkt
fcn
xax
ctk
fqp
zxv
ije
jnm
xrm
ggb
atb
fxb
kdm
unj
lfc
kqg
der
ulo
suz
eta
cpa
ryx
jdq
lpm
asg
nyz
mnj
and
lus
aih
rzy
rsk
tvl
svi
ymv
pet
pyl
fza
zwo
psi
lir
ola
wio
uct
gyn
qoy
blc
srm
mmh
iez
eox
ezf
ayd
cgq
sqy
gbq
ycz
mnq
ymr
uur
jjq
rmg
snf
gqq
egx
tvm
epn
kaq
gxh
kuk
wpn
stp
awy
mle
uic
nml
gyo
zsm
lya
yqy
lcm
bgz
pxj
rwk
fdm
nxz
eqa
nuk
fwx
hvd
gbc
lym
ydq
mmn
ppp
gyy
huw
chg
osb
bhm
vxv
ebl
eeo
wir
jpy
kun
pov
iym
uyg
spj
gdg
lek
zta
gmi
bhh
ljf
cpi
svw
fpg
zqr
rik
scv
mks
phn
fvr
oyj
erb
idq
ank
bei
sbd
vop
taq
scd
jjm
pxz
gsx
ubc
pyt
vtj
vdo
xns
fjt
ery
ome
nop
dba
egf
bsr
boe
duk
pax
gek
pco
vuc
gda
zdk
gyw
qqd
elw
uql
heq
tst
nbc
azx
wxd
phj
gio
lib
tau
hoz
vjx
aou
gha
jyt
uda
obx
ifk
qpr
kxq
qye
ype
jip
cgd
ctr
zhl
job
xxb
ani
alf
brd
san
dnm
two
iws
rsr
xgx
dtp
qpl
ylh
oyf
oyr
luz
srp
uei
hax
ysp
cng
bod
qqw
xcp
imt
ntk
xyp
xku
jkp
inm
cxu
nhk
ghw
jih
ytn
eoy
jap
pxr
mso
npj
ipg
uwr
xhk
ufx
jbf
dsk
xew
fkb
bly
mfp
cld
mdo
svo
ipf
snw
ibm
nta
ovn
vfk
znq
ztk
kgy
wtz
kza
xnr
msf
pfu
fjp
vtv
kjk
oso
dfe
utm
xob
qsh
wwz
ioh
kib
fgr
iyp
abe
avb
ijg
fgc
yby
cft
sdt
ebi
uyr
cii
vdt
ura
sfu
jtu
kjf
zmr
aor
syj
peh
wmm
fso
wcf
sle
ido
edq
dcc
ksw
rog
jon
kvd
nez
aka
oxj
nix
xlq
olq
yer
zwk
ees
bww
xwt
rjp
uny
ujp
afc
wjg
hmq
qgx
wrz
txy
txk
kwz
qqu
csh
rta
hlk
oov
fsf
sta
ewl
pnx
xil
kgp
mzh
zfn
knh
hwp
deb
qcb
wrp
lzh
nbk
xnq
xhj
htt
trd
azt
yfi
fvs
hfl
gcq
wat
cgf
wyf
bld
dgt
zuj
rmx
vgc
mds
vmb
xze
qvo
pjn
hfv
iyy
lur
unm
afr
ldm
kpj
miq
ymx
zqw
jgt
snu
vth
gcc
bsv
jzy
ijq
cso
dqf
gpg
fag
asx
lby
hac
bxj
yey
qnk
jvy
vhn
sdk
nlc
yfg
eug
ooj
fzk
njn
qjc
tra
uig
aaf
nsh
jdr
nnn
ngm
rlw
iis
vgn
jff
kbv
bnu
ltp
zbf
wnt
jjt
fnl
nka
jao
vqa
zjq
dax
kie
jle
djh
kdp
sst
baz
mre
her
qtn
hmj
ojj
txa
mqx
eso
geg
hjb
vcq
qok
eny
vua
njx
bnb
zsa
bgk
dho
qdk
mmq
jbv
hcn
ykg
xuh
pjm
rer
gab
cyn
nql
ovd
mwg
dtl
hto
btn
hlo
cpf
lni
akx
qbr
gib
jay
ygw
pfl
gdy
vsj
efa
ubr
izr
ylf
opi
reb
jio
qbl
bov
tbc
hzf
yrh
vvx
dkn
udw
jqn
mvw
ljg
yto
way
civ
epl
kjy
ett
ftd
wrc
yvo
elr
swx
vpj
vut
aob
zpv
stj
tel
nhf
fdp
ojw
ssb
xid
lfl
cep
pym
xsd
vxq
oqk
oei
biw
cdz
sjd
hdo
txh
yoj
mov
lin
sjl
pip
wif
eqo
voi
vjb
oqh
caf
nvs
ojh
iti
uec
jyz
tbr
yxl
uni
gui
mrg
eji
hdc
cdl
khu
ucl
zyl
zwe
hki
nry
idd
hdj
koy
jjo
etq
tdw
nbh
spy
ihw
igo
fox
toc
qpc
ynl
opg
kta
egi
jiz
qvx
ema
ahi
gxr
yre
mkt
yww
qhw
mbq
fsk
eww
wem
jkb
rjj
mcd
ivj
grx
ceh
bwy
xtv
uwk
yxe
uyb
tuf
pth
ghv
jze
zrb
xvo
aqr
qqv
nri
lzp
fus
wtc
sva
bva
esj
vxr
ost
orc
kaa
pcp
vcz
wae
knv
bnz
uee
fuv
abg
yoa
unp
vdc
axc
set
lqe
wpk
dey
hss
uvt
bmm
ehq
liy
wil
oox
mry
hqm
rgh
gri
eeb
ddz
tjn
hhw
hjm
hcw
ghl
ysl
ztg
ysh
fzm
veb
vsr
uuh
vec
jqy
fuq
ycd
sen
ymw
jkx
ayx
ezw
qdy
ity
oah
quo
lom
jdv
edn
men
ghc
mif
vnx
fni
fmz
gfu
kex
lnx
xri
icg
rrt
kmi
oop
esd
jwz
klh
ujo
yaw
ozo
bqn
iml
hdg
xkr
zib
doy
okt
dua
yxg
btu
ssy
mof
qvq
hcx
xys
bsw
kya
wah
iun
kll
fyi
ijp
eoh
vms
ulh
itq
wtj
kih
gqp
oyg
xbz
goq
qlt
cpm
uta
wxo
hje
kwl
zhh
urm
kso
vxx
jht
kut
dwi
xhg
nax
fwp
umf
otp
rft
kwb
dex
txr
ufc
fqc
vbu
lkr
mrz
vie
apj
tnb
ies
vyu
eqz
are
yyz
hlt
hpj
vnq
bum
waa
sqe
jsr
iab
kla
rcu
qop
kwq
gbi
qya
wld
ztn
npd
hnz
vyy
isk
kkh
apk
lwu
xga
itj
qtf
yve
bdy
tno
xtd
eub
epz
yzm
lva
lhf
kim
mvm
mxj
cjy
wlq
edg
qoj
yyn
nty
anl
swc
kgz
mzg
zem
krs
bdv
heg
mlt
uuo
bbr
qlj
jzq
fme
zbp
gpd
kmx
yvi
ugj
kor
rcp
dwd
soi
xta
zcx
zmu
dgj
srf
ywh
ste
mbl
wpq
cjx
uwp
eoe
fwa
nxj
xkx
kbr
mnd
ssx
mab
rnq
aar
vjw
yiz
bbd
gvf
eol
dvq
qir
gpu
eap
lkf
qkq
ypn
ejb
qul
xtn
znp
ydc
rjl
vqr
rbq
jvc
dsm
qls
viz
cuc
flx
urw
nsn
yst
eqr
jxp
csu
kxi
psj
xfi
jxo
cow
nku
ols
uhv
dbp
rtb
nbe
ctl
vqx
sjv
ntn
lrz
jig
gez
tvo
qer
woh
dat
mjy
fgn
arh
pmd
qhi
fsh
hom
cta
myh
qkp
cmr
tsb
qgl
qve
uel
rsb
ppk
cph
jhc
jej
qtg
ice
skn
vya
svn
psn
amr
rnx
ztm
xhl
sjr
gvu
uxv
nyd
btb
vxh
juw
uro
omr
lql
ota
efr
wck
dqo
cjl
fgm
hph
meu
gec
mbz
nbr
jym
smo
oia
fwo
yye
oxz
tos
dso
vsi
ppn
wya
rpi
whc
ake
gai
pfi
cjt
idk
xnz
cxz
nnc
cww
xum
giq
agt
ctx
cwj
led
psg
ezd
mkf
vht
njk
jbn
nmw
gan
wno
qwq
qxh
iiu
pyq
dis
fiq
qvk
cvt
zic
rzu
eup
cew
ocg
lff
wxh
lyp
hcd
ndf
rzn
xlu
dwm
amd
atp
yxn
csi
bzt
ppm
urn
ntd
aog
eiu
oms
prk
fru
uki
ofr
ngu
akq
knr
vcf
kbu
ejk
snm
mir
uen
hak
sgu
wdd
yiy
mpp
kop
yuc
vdg
sdc
bec
rku
zmd
hey
adm
kry
gis
wxw
agw
qbi
kae
elm
izh
auv
awx
wdw
cqv
lki
jan
ehc
gay
nzo
ymz
yxo
cti
tnp
lyv
wxn
puc
ues
fkg
wam
iey
ftr
jmc
rop
sxb
aex
dph
lgr
tzf
rub
uoi
yvb
dpw
nrg
hjw
qgq
oes
tux
phy
pmc
hoq
rih
oho
izg
kzs
nbu
pdd
orj
moa
czj
acq
wai
lyl
nox
ceu
ijt
evo
sya
wdl
nyb
etg
nyi
hdq
hgx
evf
zbb
ncq
kkp
wnf
cyv
jyk
wub
ibu
ltm
frb
lzo
mrn
utz
arz
iif
vgz
svu
qgw
qed
kha
uop
jdh
cak
oiw
xln
pry
wcd
wok
ozz
ipo
lcv
bvo
ajh
xwk
vwa
qib
zvo
cct
bjr
zqb
zqv
ske
huu
qph
kni
yrn
lzf
krc
ima
jxy
cvh
jwq
oqx
kyk
oub
ygs
xts
oxb
swh
rru
fna
jae
vcu
byo
ote
vdd
otm
sow
snv
vas
xaf
pzy
srn
syb
wzl
qmd
prc
vvu
pop
khg
ono
ksi
oxe
plk
qtt
dwu
vsn
mwe
syd
boq
xnp
gnx
exq
vga
lca
zig
zuu
nlm
taz
iwo
iei
unq
ruc
zpe
qhx
ycv
dwv
mwh
fya
moh
ndl
zue
bub
kjb
lqh
ber
fgy
qhy
nyc
cik
wxj
mwu
bff
ein
gey
cyl
kzo
tsl
kmp
rcz
sch
bbc
ggh
kxz
tyn
ncn
ini
yvd
xxe
yee
own
fvd
cwz
lbc
xnf
gtp
vsx
yhy
mxr
uxs
ewp
xkw
wbh
ltj
onc
gik
stu
jab
qcn
jvg
rll
rpg
dhg
vgu
est
und
awh
hjq
vwv
nzz
xqw
yvy
ncz
iaw
fns
hju
zng
hmd
dtj
egz
dbb
dmr
xyz
sbg
fxi
lgo
hww
ajp
kyw
rzw
woj
kdv
mzq
mlk
itx
ihr
rct
nrb
gke
ojb
ort
puf
vyk
fra
upp
rjg
krl
xis
mps
pni
liq
ihy
znu
tng
ybz
vvb
oxf
ebc
xaw
ysy
nqb
gxj
xdv
ubl
hrb
ext
jmf
eqm
gdl
bgr
kph
rhz
ozc
ane
mmz
rax
kkt
pwh
xvd
mdd
hzl
ntw
pdh
itf
ixv
tti
bdi
vhl
viw
xer
ayg
oxq
fuz
hct
dsf
tpx
dff
kqe
uzi
ces
hzi
cax
emh
apg
xoj
gku
zeh
xsg
jpk
jbj
fnb
bsy
dxc
mgn
lkh
grv
mxl
mda
evd
twb
jjb
ygz
hiu
jnc
wcg
rgr
ggz
apb
tjg
boa
mmd
ysd
tav
vci
ljj
xyw
sum
krx
auy
nxw
zmy
jju
uuu
wup
gvp
pwk
wsq
xoi
vub
dmq
pui
inu
tzn
uqt
hid
xph
ann
lmd
mlv
mdw
kyj
dko
fbr
hsi
jqr
quw
xso
mhl
gds
cel
jwn
lms
mrw
bkj
zti
eel
xyd
xye
usx
zfr
dpt
gti
mwk
cwc
vuk
wmy
kgb
jpm
tui
lgf
hyc
laf
kmq
lsq
oar
mih
olr
azh
qss
odj
jgc
eke
wpf
gfs
exo
jax
pdk
ttf
vrh
rid
dke
zdy
chi
kcv
kgg
pre
mfc
klj
jus
hzu
mhx
yuv
axa
izw
eea
egs
esc
yyu
wkc
cmn
aiw
pgy
ntx
tzh
rcx
cvw
bnq
cqc
kzh
mzu
klp
gzj
mjt
uqh
pkv
eko
ecw
uwu
hya
ymy
fvy
ofa
nwr
fon
kaj
bus
evc
jdd
suy
btr
rkt
gtu
jez
lbi
szm
nvz
oby
uuw
mng
cyb
ooy
nwm
qsw
mjq
cnw
eti
zgd
vig
rwo
uwo
rry
rxr
dhj
sbf
xoa
vmq
wzn
ayb
kuc
wvp
ezs
vvk
ysq
dxk
ixm
ulu
exz
whh
qnm
hic
elv
nxc
brb
ufr
vum
xfd
llq
qvh
cca
pej
tlk
gob
nyj
mme
rrb
igl
lpe
uix
zil
vvq
orr
pyv
naz
hre
rez
zsk
jkq
fkh
zcl
irc
mjw
yhu
dwo
cvs
dnr
ksx
cnd
lup
upr
iqy
rni
gad
ynu
baf
umi
hgm
akc
ibg
avy
bbs
jam
eao
zxc
owb
jni
sfl
cvo
ult
yrt
lis
uil
quz
fci
ckl
avx
jlq
uey
shk
dvd
cjk
dyw
jiu
ynj
whp
irn
bwc
gkm
txp
amm
zpk
skf
rwe
mwf
mer
dhf
jlf
ifq
jzw
gjr
qru
qor
hdv
obt
nxx
hdw
mog
jnt
wcj
dgc
zmz
cyu
edr
gzl
ybl
czc
iwi
mnf
loa
uhh
epi
ynd
pzf
maf
kxt
zyn
nco
exr
ehx
kvn
gbf
tlp
mpn
lpx
xtf
zna
sxk
skx
ear
oxw
yil
itt
emn
zzn
rth
gpm
ipc
qfn
gtq
pgt
coo
asv
van
uzo
xfu
irp
xzm
hes
jsd
dgu
ahh
okz
mgg
wtx
hel
iot
nhp
usq
ncs
kkw
sac
ezr
kzy
bkp
uqq
vnr
tec
ecz
ycq
dqy
zno
hhm
ugt
aed
ewt
mwv
fou
sxq
xeb
mtu
ero
nqr
xyq
yka
lad
peb
uto
bzl
dyy
dkq
ofq
kjc
ejs
clo
pfh
tjf
nbw
cco
qvn
bun
mip
gia
mhw
fmk
mlo
adl
mwi
vaj
imv
xdw
ytc
xdp
mbs
wzj
wnd
bxc
hos
rfu
wtf
bmg
gqb
twc
ncv
ybq
fbm
nsa
rig
lyi
llr
lkj
vps
brx
ckq
ago
fmg
wju
qfj
msp
kli
qgu
lsk
utk
ofm
wsi
zxw
mqh
pba
hbh
xiy
uvv
zrn
hcv
sug
rfl
gnz
uxa
kpk
poh
aup
tbi
dlj
vjr
oke
yed
iyw
pbz
aiv
tqr
kum
mco
ead
xjw
xlx
jjk
ppw
rty
yqu
sfw
oeo
koc
yqc
uwg
nup
ano
abx
tag
ope
ybo
epw
lrf
let
nom
wwv
apl
syw
xfp
cck
coy
qst
cag
wda
tne
vpb
gbb
wwd
fph
eai
kes
wkd
mtl
fwl
zsi
hqf
uvz
bem
wiy
zie
ekz
jxi
ivn
btl
kkq
wsc
daq
ytd
eki
nsi
yrp
zvy
kuy
xlt
yor
hmn
qmx
sng
gwj
aro
nzu
leg
kxg
bwz
cyt
wcr
syo
cod
zoz
vid
lle
mvx
ilw
kgs
tnk
mgj
owh
ben
xpt
npv
bqw
ady
nfr
ljx
liw
kwn
ffj
xpy
qwy
kzl
pyp
vmi
qum
lto
xsa
agr
lwf
bfp
rdw
nnu
ezi
ocx
wph
cwy
pfj
sty
ztc
nge
dxs
xix
gtf
ujq
wlm
rfw
zlv
rsc
vzd
epg
wfb
ktz
lbo
ydx
dco
xtp
bxi
tvw
jyh
jck
wdb
cht
wcb
nvc
pyu
egp
slr
gei
dhu
xib
yya
avw
zhw
yus
yqx
nxa
lwy
lex
rlh
dcu
wth
xvj
jyx
nsw
jjx
vol
fvv
wze
rln
rke
tba
pbf
ptw
pbu
bjv
lio
nob
akp
tqt
awm
atd
vjp
jch
xhb
mgl
vcy
xpe
nuh
wre
fab
ils
hez
grr
ktg
loo
zlp
vtr
gfr
hce
gzb
gzf
zjr
bis
ujn
zee
foi
kgx
obq
boz
cwm
lys
ydd
ykl
dll
iqq
hvz
hbj
mla
fiu
vmc
vkz
lpg
rvu
rjr
otb
qqp
ael
chx
wgh
adi
azg
njy
nlh
fxr
zjh
agu
qbg
znn
edv
gin
osv
pqg
bas
tpo
mfy
vje
jti
cpd
xsy
fgu
jua
owd
jyn
jlo
tkh
bai
coi
iir
wis
fua
wnq
xoh
bbh
kui
ted
uaq
dfz
ntz
djz
onl
rwz
pys
cxm
lvr
ksn
llx
uex
gmd
mki
lqa
wkr
cwn
rww
drg
epu
zlh
jgp
rde
mxq
yib
law
rwl
ogk
jgl
cnq
vvz
hmg
ibl
jpq
cnu
ivl
kqj
tiz
oob
bpz
tep
ekg
spr
pjc
rlx
kou
yft
bvw
eqs
erg
szl
luv
asi
qqe
zsg
toz
adx
geh
jvt
glk
mct
xli
xwg
kvm
sel
wjt
dds
hzq
jaj
fqw
rhv
vku
wmw
rhy
pot
rqr
acr
mhi
kud
nsk
yuf
kbm
mlw
mkp
bhx
hlm
rnw
xps
fpe
fzj
vpo
jhe
heo
zer
wly
vto
luj
fym
kye
oaa
bft
fbs
haa
gox
tjk
orn
qan
tdc
kjt
pgu
eby
uch
whv
mtg
pwc
uar
dms
qvz
rmm
xbl
lyx
pdn
fcd
ats
adt
yso
rdn
vnp
bib
wqv
rxz
qld
gzz
pte
ptn
zxj
tgu
sna
sae
kad
ict
yjw
hua
vzy
nvh
ora
bvq
oef
kfn
ico
ozn
slo
zbm
eui
lyw
doa
dbx
azq
bal
tvy
ifd
vhy
sri
qvb
awk
ttk
uis
vbb
ust
seb
lum
rtc
vbv
wqa
xkl
xaz
bjw
wvm
byj
njr
xex
rrx
rdj
utt
zpx
ivw
dfh
sji
asm
smp
sbn
ugk
qsk
bhc
vtt
rki
vix
gxn
kdx
hso
jgy
onz
eld
cwu
izo
beq
twg
tok
lgh
cvz
xpc
gba
ivy
ovs
dhv
yfe
bgh
akg
oci
olu
ouh
zpi
yqt
bwj
wtg
mzw
mgm
rdx
dul
kfe
ylc
nsc
vxf
fsq
lpr
tyr
szj
vse
awz
czo
djn
hvj
cjs
gdm
gzi
sca
zgx
qgo
aoo
caz
ttz
xyi
hbd
jrc
oeq
mbc
qli
jqg
ham
lzu
vxz
jlp
bzk
emm
zks
apq
suh
fnu
urz
rrd
hvt
vnj
ftv
aum
dqt
vjh
gzc
ylb
wiq
rua
gkk
sla
oio
fhk
kpu
ruz
kki
ccl
ugd
wvr
mmb
wsg
hwb
kft
kwx
odx
tct
hqz
dtb
bic
vnz
fbj
unt
rao
prp
uuf
adk
hrt
mij
thp
udm
lwz
szk
rxb
mop
clf
cju
lvy
akl
uid
zud
hdl
ksy
eal
zxe
rvq
sth
hzo
dpy
pfe
gwt
uvj
tlm
pdx
waj
qbs
bbf
sux
puk
amv
bdt
hsj
ase
fcj
jrq
wto
xtr
kxa
zmj
bba
oxv
zxh
igs
fyf
dbr
wwm
ylu
ctu
hay
zim
inw
iqp
oyh
sni
sdu
lix
gvc
efz
eva
elk
mfa
zhy
qkg
fbb
emj
qwo
hib
xpr
yos
edp
qua
mbn
noj
uox
wci
opv
hqk
zey